rust-1.56.1-x86_64-unknown-linux-musl.tar.xz b26d4b9f6396be87aadfbb4777d91c80cfe656570e2bf1a0350788ca45caa7178d4b91966e77c8cc4873e017fd99649ae6a82abad64b32a4eb1f5dfb3a20d45e
rustc-1.57.0-src.tar.gz 243b60211dc6c007eb290a4dacf37fa08798b3939236c7fd67a64a2d2e592c27e105cff88887c298b8ebf255e6037d5edb5ebfa68199c77dfbceb06799b61c61
1.24.3.tar.gz 43e85f1e653d451a2555a7ae9a3f47c4b9eb8e0fea0cd9cdcf381728ac933b56aaa25366ca2e1b12f20f9190b77d407a00a3f559ced6ad9c4f51fcef9efe67d7
0001-bootstrap-Change-libexec-dir.patch 5f816227deeb38f3c80965e3eb3696137c6ead8e9674830b783051367f46854cf213343c57061fadaaaefc17a165b0e769c9c85ea8c2e931bc6a28247f48c8e3
0001-cargo-Change-libexec-dir.patch c952114400c602c04e31fe26948ec3f1dcf820e249e756c9af6c2969e64a368ac2d57aa39744e41523583c6a3bff1b26c33e8ae3552268fe491949e64537226a
0006-Prefer-libgcc_eh-over-libunwind-for-musl.patch d368c955b058e7b57d91f53fbebf1030f2d2826b0ffb0a85db5aa54baee7bd44371491cc373101846232f91fd383dd15aa1cd245fb8f439d35813ac4017be419
0007-do-not-install-libunwind-source.patch 7af23c34096f7a03c5a1b40aa07e00dd6193743c872881018a9baa900f240c6e44918e481ab5ed7787a70ef361e4aeec2a7719bcd695f52988262e23271b44e5
0008-link-stage-2-tools-dynamically-to-libstd.patch aaa9c17e51495da76aef0a2c76a06c3b201559c4f533a101daac4970e6215ad84db4756c207ec9a00c83e2d8915618579a2489fdf550f1ca258802bbe43a5b5a
need-ssp-nonshared-and-execinfo.patch b53d5ac4f5ab862c7f9b92f1acc0c3eeaaae65b23ee3e818e2b79a87dbf7868e3768c260014974154615572ade9b6b073fa51418c4aff8c4614d7d154f6a2263
link-musl-dynamically.patch d5d3ccc5c3a73bf1816106ba00805346ea28f2e6337d960e9e9f776ba59d22abd8864382f163d32dd9a278df38c080949dafc70169728f44080ddc04f1e7f125
musl-fix-linux_musl_base.patch 4accbdf546e9f82f38d56169f65fcfb53839e1df89978b9a434a59a1dcb80b4d57c0272c0ece65530ce09ad0f7a7e880b4b97e2b8dd8f2bccace02a5874e6733
