rust-1.63.0-x86_64-unknown-linux-musl.tar.xz 995530319a14bd6674d5be145e777b7fd482953e62ecf672a29e2c5b4bf567e010d7db4d5c6acef1603d79135e74f21955d9fc13ed7e1c33279d05aae39bdfec
rustc-1.63.0-src.tar.gz 8c4ce20f0e6ddf86c13e24f222846dbcddc6b8fccc5490b1c41877df3ecf2543bf5fd88431d2e6d23280f90c0395f0d812b4ad7c13098128b043669660911299
1.25.1.tar.gz a77cb34ba0c2e7577c8acbd474197aabaa84e3b64b3c42f1d0c328df55c6accbe412aba9a787f0ea2f0654f085475455c9c488b2b6de34ad8889a2716d1e8d0c
0001-bootstrap-Change-libexec-dir.patch 5f816227deeb38f3c80965e3eb3696137c6ead8e9674830b783051367f46854cf213343c57061fadaaaefc17a165b0e769c9c85ea8c2e931bc6a28247f48c8e3
0001-cargo-Change-libexec-dir.patch c952114400c602c04e31fe26948ec3f1dcf820e249e756c9af6c2969e64a368ac2d57aa39744e41523583c6a3bff1b26c33e8ae3552268fe491949e64537226a
0006-Prefer-libgcc_eh-over-libunwind-for-musl.patch d368c955b058e7b57d91f53fbebf1030f2d2826b0ffb0a85db5aa54baee7bd44371491cc373101846232f91fd383dd15aa1cd245fb8f439d35813ac4017be419
0007-do-not-install-libunwind-source.patch 7af23c34096f7a03c5a1b40aa07e00dd6193743c872881018a9baa900f240c6e44918e481ab5ed7787a70ef361e4aeec2a7719bcd695f52988262e23271b44e5
0008-link-stage-2-tools-dynamically-to-libstd.patch aaa9c17e51495da76aef0a2c76a06c3b201559c4f533a101daac4970e6215ad84db4756c207ec9a00c83e2d8915618579a2489fdf550f1ca258802bbe43a5b5a
need-ssp-nonshared-and-execinfo.patch b53d5ac4f5ab862c7f9b92f1acc0c3eeaaae65b23ee3e818e2b79a87dbf7868e3768c260014974154615572ade9b6b073fa51418c4aff8c4614d7d154f6a2263
link-musl-dynamically.patch d6e5c5695a9f08898dbd4aaded4b7ad12439f3f3604b62eb638933207fa381093662b0bb9ce6f8c18f00747217bce6aefae0623b3bb917d3e29504ca70737460
musl-fix-linux_musl_base.patch 06682988b550684e0c657375754f0bd1a537659ba680e6b1688464aa228c147986ad6012c5c37706da3071235a959bce8ff1f49ef5b2beae60341cbc3fe69e64
